MODEL        1
REMARK  Name = ZINC000009255826
REMARK                            x       y       z     vdW  Elec       q    Type
REMARK                         _______ _______ _______ _____ _____    ______ ____
ROOT
ATOM      1  C   LIG    1       -2.493   0.023   0.014  0.00  0.00    +0.100 C 
ENDROOT
BRANCH   1   4
ATOM      2  C   LIG    1       -0.018   1.503   0.010  0.00  0.00    +0.090 C 
ATOM      3  C   LIG    1        0.002  -0.004   0.002  0.00  0.00    +0.200 A 
ATOM      4  C   LIG    1       -1.171  -0.701   0.004  0.00  0.00    -0.380 A 
ATOM      5  C   LIG    1       -1.126  -2.107  -0.004  0.00  0.00    +0.520 A 
ATOM      6  N   LIG    1        0.078  -2.717  -0.014  0.00  0.00    -0.700 NA
ATOM      7  C   LIG    1        1.215  -1.970  -0.015  0.00  0.00    +0.590 A 
ATOM      8  O   LIG    1       -2.156  -2.762  -0.004  0.00  0.00    -0.630 OA
ATOM      9  N   LIG    1        1.164  -0.653  -0.013  0.00  0.00    -0.670 NA
BRANCH   7  10
ATOM     10  N   LIG    1        2.432  -2.597  -0.025  0.00  0.00    -0.600 N 
ATOM     11  C   LIG    1        3.683  -1.822  -0.020  0.00  0.00    +0.260 C 
ATOM     12  C   LIG    1        4.583  -2.364   1.095  0.00  0.00    +0.200 C 
ATOM     13  O   LIG    1        4.714  -3.780   0.948  0.00  0.00    -0.390 OA
ATOM     14  C   LIG    1        3.485  -4.498   1.077  0.00  0.00    +0.200 C 
ATOM     15  C   LIG    1        2.528  -4.065  -0.034  0.00  0.00    +0.270 C 
ENDBRANCH   7  10
ENDBRANCH   1   4
BRANCH   1  16
ATOM     16  C   LIG    1       -3.007   0.166  -1.420  0.00  0.00    +0.040 C 
BRANCH  16  17
ATOM     17  C   LIG    1       -4.329   0.890  -1.410  0.00  0.00    +0.520 C 
ATOM     18  N   LIG    1       -4.974   1.131  -2.568  0.00  0.00    -0.620 N 
ATOM     19  C   LIG    1       -4.404   0.688  -3.848  0.00  0.00    +0.270 C 
ATOM     20  C   LIG    1       -5.440  -0.181  -4.572  0.00  0.00    +0.300 C 
ATOM     21  N   LIG    1       -6.727   0.529  -4.577  0.00  0.00    -0.580 N 
ATOM     22  C   LIG    1       -7.297   0.972  -3.297  0.00  0.00    +0.290 C 
ATOM     23  C   LIG    1       -6.263   1.836  -2.573  0.00  0.00    +0.280 C 
ATOM     24  O   LIG    1       -4.811   1.256  -0.359  0.00  0.00    -0.540 OA
BRANCH  21  25
ATOM     25  C   LIG    1       -7.390   0.775  -5.767  0.00  0.00    +0.570 A 
ATOM     26  N   LIG    1       -6.854   0.358  -6.904  0.00  0.00    -0.570 NA
ATOM     27  C   LIG    1       -7.462   0.578  -8.059  0.00  0.00    +0.360 A 
ATOM     28  C   LIG    1       -8.673   1.252  -8.068  0.00  0.00    -0.160 A 
ATOM     29  C   LIG    1       -9.205   1.674  -6.859  0.00  0.00    +0.360 A 
ATOM     30  N   LIG    1       -8.548   1.418  -5.740  0.00  0.00    -0.570 NA
ENDBRANCH  21  25
ENDBRANCH  16  17
ENDBRANCH   1  16
TORSDOF 5
ENDMDL
MODEL        2
REMARK  Name = ZINC000044171185
REMARK                            x       y       z     vdW  Elec       q    Type
REMARK                         _______ _______ _______ _____ _____    ______ ____
ROOT
ATOM      1  C   LIG    1       -2.461  -2.744   0.011  0.00  0.00    +0.180 C 
ATOM      2  O   LIG    1       -3.136  -2.469  -1.236  0.00  0.00    -0.340 OA
ATOM      3  C   LIG    1       -4.187  -3.455  -1.326  0.00  0.00    +0.430 C 
ATOM      4  C   LIG    1       -3.545  -4.763  -0.814  0.00  0.00    +0.180 C 
ATOM      5  C   LIG    1       -2.384  -4.285   0.089  0.00  0.00    +0.190 C 
ENDROOT
BRANCH   3   6
ATOM      6  N   LIG    1       -4.625  -3.609  -2.716  0.00  0.00    -0.490 N 
ATOM      7  C   LIG    1       -3.824  -3.883  -3.789  0.00  0.00    +0.380 A 
ATOM      8  N   LIG    1       -4.539  -3.952  -4.872  0.00  0.00    -0.440 NA
ATOM      9  C   LIG    1       -5.843  -3.727  -4.565  0.00  0.00    -0.230 A 
ATOM     10  C   LIG    1       -7.026  -3.679  -5.308  0.00  0.00    +0.520 A 
ATOM     11  N   LIG    1       -8.194  -3.418  -4.652  0.00  0.00    -0.680 NA
ATOM     12  C   LIG    1       -8.199  -3.212  -3.324  0.00  0.00    +0.640 A 
ATOM     13  N   LIG    1       -7.084  -3.255  -2.604  0.00  0.00    -0.680 NA
ATOM     14  O   LIG    1       -9.258  -2.981  -2.763  0.00  0.00    -0.610 OA
ATOM     15  C   LIG    1       -5.910  -3.510  -3.174  0.00  0.00    +0.390 A 
BRANCH  10  16
ATOM     16  N   LIG    1       -7.013  -3.889  -6.659  0.00  0.00    -0.830 N 
ATOM     17  H   LIG    1       -7.841  -3.853  -7.164  0.00  0.00    +0.400 HD
ATOM     18  H   LIG    1       -6.176  -4.074  -7.113  0.00  0.00    +0.410 HD
ENDBRANCH  10  16
ENDBRANCH   3   6
BRANCH   1  19
ATOM     19  C   LIG    1       -1.056  -2.140   0.001  0.00  0.00    +0.260 C 
BRANCH  19  20
ATOM     20  O   LIG    1       -1.151  -0.691   0.009  0.00  0.00    -0.350 OA
BRANCH  20  22
ATOM     21  C   LIG    1       -0.018   1.503   0.010  0.00  0.00    +0.150 C 
ATOM     22  C   LIG    1        0.002  -0.004   0.002  0.00  0.00    +0.460 C 
ATOM     23  O   LIG    1        1.056  -0.594  -0.011  0.00  0.00    -0.510 OA
ENDBRANCH  20  22
ENDBRANCH  19  20
ENDBRANCH   1  19
BRANCH   4  24
ATOM     24  O   LIG    1       -4.505  -5.533  -0.043  0.00  0.00    -0.330 OA
BRANCH  24  25
ATOM     25  C   LIG    1       -5.237  -6.439  -0.711  0.00  0.00    +0.450 C 
ATOM     26  O   LIG    1       -5.080  -6.584  -1.901  0.00  0.00    -0.490 OA
ATOM     27  C   LIG    1       -6.254  -7.275   0.022  0.00  0.00    +0.160 C 
ENDBRANCH  24  25
ENDBRANCH   4  24
BRANCH   5  28
ATOM     28  O   LIG    1       -2.578  -4.742   1.453  0.00  0.00    -0.320 OA
BRANCH  28  29
ATOM     29  C   LIG    1       -1.475  -4.970   2.183  0.00  0.00    +0.460 C 
ATOM     30  O   LIG    1       -0.383  -4.793   1.697  0.00  0.00    -0.510 OA
ATOM     31  C   LIG    1       -1.598  -5.446   3.607  0.00  0.00    +0.160 C 
ENDBRANCH  28  29
ENDBRANCH   5  28
TORSDOF 9
ENDMDL
